Version 4.1
SHEET 1 880 680
WIRE -160 112 -256 112
WIRE 64 112 -80 112
WIRE -256 176 -256 112
WIRE 64 304 32 304
WIRE 368 304 336 304
WIRE 32 336 32 304
WIRE 64 336 32 336
WIRE 368 336 368 304
WIRE 368 336 336 336
WIRE -256 400 -256 240
WIRE 32 400 32 336
WIRE 368 400 368 336
FLAG 32 400 0
FLAG 368 400 0
FLAG -256 400 0
SYMBOL LED -272 176 R0
SYMATTR InstName D1
SYMBOL res -64 96 R90
WINDOW 0 0 56 VBottom 2
WINDOW 3 32 56 VTop 2
SYMATTR InstName R1
SYMATTR Value 220
SYMBOL symbols\\ESP32-C3-Mini 112 48 R0
SYMATTR InstName X2
