Version 4.1
SHEET 1 1012 680
WIRE -480 -224 -592 -224
WIRE -272 -224 -480 -224
WIRE -80 -224 -272 -224
WIRE -80 -208 -80 -224
WIRE -272 -48 -272 -224
WIRE 32 0 32 -128
WIRE 144 0 32 0
WIRE 576 16 496 16
WIRE 880 16 656 16
WIRE 992 16 944 16
WIRE 144 32 -160 32
WIRE 496 32 496 16
WIRE 496 32 416 32
WIRE -480 48 -480 -224
WIRE 144 128 -368 128
WIRE 576 128 416 128
WIRE 800 128 656 128
WIRE 992 128 992 16
WIRE 992 128 864 128
WIRE 528 192 416 192
WIRE 528 240 528 192
WIRE 576 240 528 240
WIRE 720 240 656 240
WIRE 992 240 992 128
WIRE 992 240 784 240
WIRE -480 256 -480 208
WIRE -272 256 -272 112
WIRE -272 256 -480 256
WIRE -80 256 -80 -48
WIRE -80 256 -272 256
WIRE 144 256 -80 256
WIRE 144 320 112 320
WIRE 448 320 416 320
WIRE 112 352 112 320
WIRE 144 352 112 352
WIRE 448 352 448 320
WIRE 448 352 416 352
WIRE -592 400 -592 -224
WIRE 112 400 112 352
WIRE 448 400 448 352
WIRE 992 416 992 240
FLAG 112 400 0
FLAG -592 400 0
FLAG 448 400 0
FLAG 992 416 0
SYMBOL res 560 144 R270
WINDOW 0 32 56 VTop 2
WINDOW 3 0 56 VBottom 2
SYMATTR InstName R5
SYMATTR Value 390
SYMBOL res 560 32 R270
WINDOW 0 32 56 VTop 2
WINDOW 3 0 56 VBottom 2
SYMATTR InstName R6
SYMATTR Value 390
SYMBOL res 672 224 R90
WINDOW 0 0 56 VBottom 2
WINDOW 3 32 56 VTop 2
SYMATTR InstName R4
SYMATTR Value 390
SYMBOL LED 720 256 R270
WINDOW 0 72 32 VTop 2
WINDOW 3 0 32 VBottom 2
SYMATTR InstName D1
SYMBOL LED 800 144 R270
WINDOW 0 72 32 VTop 2
WINDOW 3 0 32 VBottom 2
SYMATTR InstName D2
SYMBOL LED 880 32 R270
WINDOW 0 72 32 VTop 2
WINDOW 3 0 32 VBottom 2
SYMATTR InstName D3
SYMBOL symbols\\Potentiometer -16 -64 R0
SYMATTR InstName R7
SYMBOL symbols\\Potentiometer -208 96 R0
SYMATTR InstName R8
SYMBOL symbols\\Potentiometer -416 192 R0
SYMATTR InstName R9
SYMBOL symbols\\ESP32-C3-Mini 192 64 R0
SYMATTR InstName X2
