Version 4.1
SHEET 1 1196 788
WIRE 368 368 240 368
WIRE 368 400 368 368
WIRE 592 480 480 480
WIRE 960 480 864 480
WIRE 1072 480 1040 480
WIRE 1072 560 1072 480
WIRE 368 608 368 560
WIRE 592 608 368 608
WIRE 592 672 544 672
WIRE 912 672 864 672
WIRE 544 704 544 672
WIRE 592 704 544 704
WIRE 912 704 912 672
WIRE 912 704 864 704
WIRE 240 768 240 368
WIRE 544 768 544 704
WIRE 912 768 912 704
WIRE 1072 768 1072 624
FLAG 544 768 0
FLAG 912 768 0
FLAG 240 768 0
FLAG 1072 768 0
SYMBOL res 1056 464 R90
WINDOW 0 0 56 VBottom 2
WINDOW 3 32 56 VTop 2
SYMATTR InstName 220
SYMBOL LED 1056 560 R0
SYMATTR InstName D1
SYMBOL symbols\\Potentiometer 432 544 R0
SYMATTR InstName R2
SYMBOL symbols\\ESP32-C3-Mini 640 416 R0
SYMATTR InstName X2
